<?xml version="1.0" encoding="UTF-8"?>

<!-- generated on 2025-03-18 01:12:13 by Eclipse SUMO sumo Version 1.22.0
-->

<sumoConfiguration xmlns:xsi="http://www.w3.org/2001/XMLSchema-instance" xsi:noNamespaceSchemaLocation="http://sumo.dlr.de/xsd/sumoConfiguration.xsd">

    <input>
        <net-file value="teste.net.xml"/>
        <route-files value="teste.rou.xml"/>
    </input>

</sumoConfiguration>
